Circuit: * C:\Users\Enrico\Desktop\van_logic_board\hardware\soft_starter_board\Draft1.asc

WARNING: Node NC_03 is floating.

WARNING: Less than two connections to node NC_02.  This node is used by R6.
WARNING: Less than two connections to node NC_03.  This node is used by R9.
Direct Newton iteration for .op point succeeded.

Date: Wed Aug 24 14:18:11 2022
Total elapsed time: 3.509 seconds.

tnom = 27
temp = 27
method = modified trap
totiter = 256090
traniter = 256059
tranpoints = 70789
accept = 53140
rejected = 17649
matrix size = 43
fillins = 6
solver = Normal
Matrix Compiler1: 2.18 KB object code size  1.3/0.8/[0.4]
Matrix Compiler2: 3.20 KB object code size  0.8/1.1/[0.6]

